12U
     RDKit          3D

 29 31  0  0  0  0  0  0  0  0999 V2000
   17.6350   -8.9340   12.2340 C   0  0  0  0  0  0  0  0  0  0  0  0
   17.8040   -7.8740   11.6680 O   0  0  0  0  0  0  0  0  0  0  0  0
   16.5680   -9.1030   13.0400 N   0  0  0  0  0  4  0  0  0  0  0  0
   15.4850   -8.1260   13.2490 C   0  0  0  0  0  0  0  0  0  0  0  0
   14.8940   -8.4780   14.6370 C   0  0  0  0  0  0  0  0  0  0  0  0
   14.9820  -10.0280   14.6270 C   0  0  0  0  0  0  0  0  0  0  0  0
   16.2910  -10.2950   13.8550 C   0  0  0  0  0  0  0  0  0  0  0  0
   16.0380   -6.7240   13.2570 C   0  0  0  0  0  0  0  0  0  0  0  0
   16.7000   -6.3380   14.1970 O   0  0  0  0  0  0  0  0  0  0  0  0
   15.8030   -5.9010   12.2160 N   0  0  0  0  0  4  0  0  0  0  0  0
   16.3460   -4.5400   12.2200 C   0  0  0  0  0  0  0  0  0  0  0  0
   16.9900   -4.2510   10.8890 C   0  0  0  0  0  0  0  0  0  0  0  0
   18.1970   -4.8430   10.5640 C   0  0  0  0  0  0  0  0  0  0  0  0
   18.7890   -4.5870    9.3450 C   0  0  0  0  0  0  0  0  0  0  0  0
   18.1730   -3.7210    8.4420 C   0  0  0  0  0  0  0  0  0  0  0  0
   16.9580   -3.1220    8.7770 C   0  0  0  0  0  0  0  0  0  0  0  0
   16.3730   -3.3900    9.9980 C   0  0  0  0  0  0  0  0  0  0  0  0
   18.8060   -3.4370    7.1340 C   0  0  0  0  0  0  0  0  0  0  0  0
   18.0730   -3.0600    6.1240 N   0  0  0  0  0  1  0  0  0  0  0  0
   20.1690   -3.5710    6.9840 N   0  0  0  0  0  2  0  0  0  0  0  0
   18.6160  -10.0590   12.0350 C   0  0  0  0  0  0  0  0  0  0  0  0
   18.9070  -10.2080   10.6030 N   0  0  0  0  0  4  0  0  0  0  0  0
   18.6070  -11.5710   10.1430 C   0  0  0  0  0  0  0  0  0  0  0  0
   17.2250  -12.0040   10.6740 C   0  0  0  0  0  3  0  0  0  0  0  0
   16.6620  -13.1130    9.9170 C   0  0  0  0  0  0  0  0  0  0  0  0
   17.5340  -14.3820    9.9970 C   0  0  0  0  0  0  0  0  0  0  0  0
   18.6770  -14.2390    9.0300 C   0  0  0  0  0  0  0  0  0  0  0  0
   19.9460  -13.6730    9.6950 C   0  0  0  0  0  0  0  0  0  0  0  0
   19.6430  -12.5230   10.6750 C   0  0  0  0  0  0  0  0  0  0  0  0
  2  1  2  0
  3  1  1  0
  4  3  1  0
  5  4  2  0
  6  5  2  0
  7  6  2  0
  7  3  2  0
  8  4  1  0
  9  8  2  0
 10  8  1  0
 11 10  3  0
 12 11  1  0
 13 12  1  0
 14 13  3  0
 15 14  1  0
 16 15  2  0
 17 16  2  0
 17 12  2  0
 18 15  1  0
 19 18  1  0
 20 18  2  0
 21  1  1  0
 22 21  3  0
 23 22  1  0
 24 23  1  0
 25 24  2  0
 26 25  2  0
 27 26  2  0
 28 27  2  0
 29 28  2  0
 29 23  2  0
M  CHG  6   3   1  10   1  19  -2  20  -1  22   1  24  -1
M  END
$$$$
