13U
     RDKit          3D

 65 67  0  0  0  0  0  0  0  0999 V2000
   17.6240   -9.0100   12.2280 C   0  0  0  0  0  0  0  0  0  0  0  0
   17.8010   -7.9620   11.6450 O   0  0  0  0  0  0  0  0  0  0  0  0
   16.5660   -9.1520   13.0520 N   0  0  0  0  0  0  0  0  0  0  0  0
   15.5010   -8.1550   13.2630 C   0  0  0  0  0  0  0  0  0  0  0  0
   14.9260   -8.4790   14.6640 C   0  0  0  0  0  0  0  0  0  0  0  0
   14.9910  -10.0300   14.6770 C   0  0  0  0  0  0  0  0  0  0  0  0
   16.2850  -10.3280   13.8890 C   0  0  0  0  0  0  0  0  0  0  0  0
   16.0740   -6.7620   13.2410 C   0  0  0  0  0  0  0  0  0  0  0  0
   16.7570   -6.3720   14.1650 O   0  0  0  0  0  0  0  0  0  0  0  0
   15.8320   -5.9500   12.1930 N   0  0  0  0  0  0  0  0  0  0  0  0
   16.3940   -4.5980   12.1690 C   0  0  0  0  0  0  0  0  0  0  0  0
   17.0130   -4.3340   10.8200 C   0  0  0  0  0  0  0  0  0  0  0  0
   16.2790   -3.6930    9.8380 C   0  0  0  0  0  0  0  0  0  0  0  0
   16.8440   -3.4440    8.6040 C   0  0  0  0  0  0  0  0  0  0  0  0
   18.1520   -3.8510    8.3430 C   0  0  0  0  0  0  0  0  0  0  0  0
   18.8840   -4.5010    9.3350 C   0  0  0  0  0  0  0  0  0  0  0  0
   18.3110   -4.7400   10.5670 C   0  0  0  0  0  0  0  0  0  0  0  0
   18.7600   -3.5910    7.0180 C   0  0  0  0  0  0  0  0  0  0  0  0
   18.0510   -3.0470    6.0720 N   0  0  0  0  0  0  0  0  0  0  0  0
   20.0760   -3.9260    6.7870 N   0  0  0  0  0  0  0  0  0  0  0  0
   18.5860  -10.1530   12.0320 C   0  0  0  0  0  0  0  0  0  0  0  0
   18.7170  -10.4420   10.5980 N   0  0  0  0  0  0  0  0  0  0  0  0
   18.5390  -11.8750   10.3320 C   0  0  0  0  0  0  0  0  0  0  0  0
   17.1910  -12.3340   10.8900 C   0  0  0  0  0  0  0  0  0  0  0  0
   16.3980  -13.0450    9.7910 C   0  0  0  0  0  0  0  0  0  0  0  0
   16.9690  -14.4480    9.5780 C   0  0  0  0  0  0  0  0  0  0  0  0
   18.2790  -14.3520    8.7940 C   0  0  0  0  0  0  0  0  0  0  0  0
   19.4430  -14.7780    9.6910 C   0  0  0  0  0  0  0  0  0  0  0  0
   19.2800  -14.1430   11.0730 C   0  0  0  0  0  0  0  0  0  0  0  0
   19.6650  -12.6640   11.0040 C   0  0  0  0  0  0  0  0  0  0  0  0
    0.0000    0.0000    0.0000 H   0  0  0  0  0  0  0  0  0  0  0  0
    0.0000    0.0000    0.0000 H   0  0  0  0  0  0  0  0  0  0  0  0
    0.0000    0.0000    0.0000 H   0  0  0  0  0  0  0  0  0  0  0  0
    0.0000    0.0000    0.0000 H   0  0  0  0  0  0  0  0  0  0  0  0
    0.0000    0.0000    0.0000 H   0  0  0  0  0  0  0  0  0  0  0  0
    0.0000    0.0000    0.0000 H   0  0  0  0  0  0  0  0  0  0  0  0
    0.0000    0.0000    0.0000 H   0  0  0  0  0  0  0  0  0  0  0  0
    0.0000    0.0000    0.0000 H   0  0  0  0  0  0  0  0  0  0  0  0
    0.0000    0.0000    0.0000 H   0  0  0  0  0  0  0  0  0  0  0  0
    0.0000    0.0000    0.0000 H   0  0  0  0  0  0  0  0  0  0  0  0
    0.0000    0.0000    0.0000 H   0  0  0  0  0  0  0  0  0  0  0  0
    0.0000    0.0000    0.0000 H   0  0  0  0  0  0  0  0  0  0  0  0
    0.0000    0.0000    0.0000 H   0  0  0  0  0  0  0  0  0  0  0  0
    0.0000    0.0000    0.0000 H   0  0  0  0  0  0  0  0  0  0  0  0
    0.0000    0.0000    0.0000 H   0  0  0  0  0  0  0  0  0  0  0  0
    0.0000    0.0000    0.0000 H   0  0  0  0  0  0  0  0  0  0  0  0
    0.0000    0.0000    0.0000 H   0  0  0  0  0  0  0  0  0  0  0  0
    0.0000    0.0000    0.0000 H   0  0  0  0  0  0  0  0  0  0  0  0
    0.0000    0.0000    0.0000 H   0  0  0  0  0  0  0  0  0  0  0  0
    0.0000    0.0000    0.0000 H   0  0  0  0  0  0  0  0  0  0  0  0
    0.0000    0.0000    0.0000 H   0  0  0  0  0  0  0  0  0  0  0  0
    0.0000    0.0000    0.0000 H   0  0  0  0  0  0  0  0  0  0  0  0
    0.0000    0.0000    0.0000 H   0  0  0  0  0  0  0  0  0  0  0  0
    0.0000    0.0000    0.0000 H   0  0  0  0  0  0  0  0  0  0  0  0
    0.0000    0.0000    0.0000 H   0  0  0  0  0  0  0  0  0  0  0  0
    0.0000    0.0000    0.0000 H   0  0  0  0  0  0  0  0  0  0  0  0
    0.0000    0.0000    0.0000 H   0  0  0  0  0  0  0  0  0  0  0  0
    0.0000    0.0000    0.0000 H   0  0  0  0  0  0  0  0  0  0  0  0
    0.0000    0.0000    0.0000 H   0  0  0  0  0  0  0  0  0  0  0  0
    0.0000    0.0000    0.0000 H   0  0  0  0  0  0  0  0  0  0  0  0
    0.0000    0.0000    0.0000 H   0  0  0  0  0  0  0  0  0  0  0  0
    0.0000    0.0000    0.0000 H   0  0  0  0  0  0  0  0  0  0  0  0
    0.0000    0.0000    0.0000 H   0  0  0  0  0  0  0  0  0  0  0  0
    0.0000    0.0000    0.0000 H   0  0  0  0  0  0  0  0  0  0  0  0
    0.0000    0.0000    0.0000 H   0  0  0  0  0  0  0  0  0  0  0  0
  1  2  2  0
  1 21  1  0
  1  3  1  0
  3  4  1  0
  3  7  1  0
  4  8  1  0
  4  5  1  0
  5  6  1  0
  6  7  1  0
  8 10  1  0
  8  9  2  0
 10 11  1  0
 11 12  1  0
 12 13  2  0
 12 17  1  0
 13 14  1  0
 14 15  2  0
 15 18  1  0
 15 16  1  0
 16 17  2  0
 18 19  2  3
 18 20  1  0
 21 22  1  0
 22 23  1  0
 23 24  1  0
 23 30  1  0
 24 25  1  0
 25 26  1  0
 26 27  1  0
 27 28  1  0
 28 29  1  0
 29 30  1  0
  4 31  1  0
  5 32  1  0
  5 33  1  0
  6 34  1  0
  6 35  1  0
  7 36  1  0
  7 37  1  0
 10 38  1  0
 11 39  1  0
 11 40  1  0
 13 41  1  0
 14 42  1  0
 16 43  1  0
 17 44  1  0
 19 45  1  0
 20 46  1  0
 20 47  1  0
 21 48  1  0
 21 49  1  0
 22 50  1  0
 23 51  1  0
 24 52  1  0
 24 53  1  0
 25 54  1  0
 25 55  1  0
 26 56  1  0
 26 57  1  0
 27 58  1  0
 27 59  1  0
 28 60  1  0
 28 61  1  0
 29 62  1  0
 29 63  1  0
 30 64  1  0
 30 65  1  0
M  END
$$$$
