607
     RDKit          3D

 53 56  0  0  0  0  0  0  0  0999 V2000
   16.2510   -5.5460   13.4290 C   0  0  0  0  0  0  0  0  0  0  0  0
   16.1440   -4.6400   14.4860 C   0  0  0  0  0  0  0  0  0  0  0  0
   15.8240   -5.0850   15.7520 C   0  0  0  0  0  0  0  0  0  0  0  0
   15.6050   -6.4300   15.9860 C   0  0  0  0  0  0  0  0  0  0  0  0
   15.7070   -7.3480   14.9440 C   0  0  0  0  0  0  0  0  0  0  0  0
   16.0260   -6.9080   13.6570 C   0  0  0  0  0  0  0  0  0  0  0  0
   16.1260   -7.7960   12.6370 O   0  0  0  0  0  1  0  0  0  0  0  0
   18.3210   -3.8960    8.0540 C   0  0  0  0  0  0  0  0  0  0  0  0
   17.0360   -3.3660    7.8930 C   0  0  0  0  0  0  0  0  0  0  0  0
   16.1100   -3.4790    8.8910 C   0  0  0  0  0  0  0  0  0  0  0  0
   16.4380   -4.1240   10.0780 C   0  0  0  0  0  0  0  0  0  0  0  0
   17.7260   -4.6630   10.2570 C   0  0  0  0  0  0  0  0  0  0  0  0
   18.6660   -4.5500    9.2330 C   0  0  0  0  0  0  0  0  0  0  0  0
   15.7430   -4.3930   11.2380 N   0  0  0  0  0  0  0  0  0  0  0  0
   17.7570   -5.2230   11.4920 N   0  0  0  0  0  0  0  0  0  0  0  0
   16.5940   -5.0680   12.0740 C   0  0  0  0  0  0  0  0  0  0  0  0
   19.3130   -3.7670    6.9670 C   0  0  0  0  0  0  0  0  0  0  0  0
   20.4650   -3.1320    7.1860 N   0  0  0  0  0  4  0  0  0  0  0  0
   19.0580   -4.2850    5.7660 N   0  0  0  0  0  0  0  0  0  0  0  0
   15.4730   -8.7910   15.2000 C   0  0  0  0  0  0  0  0  0  0  0  0
   16.5530   -9.6790   15.2570 C   0  0  0  0  0  0  0  0  0  0  0  0
   16.3230  -11.0260   15.5020 C   0  0  0  0  0  0  0  0  0  0  0  0
   15.0330  -11.4870   15.6770 C   0  0  0  0  0  0  0  0  0  0  0  0
   13.9630  -10.6100   15.6160 C   0  0  0  0  0  0  0  0  0  0  0  0
   14.1770   -9.2670   15.3780 C   0  0  0  0  0  0  0  0  0  0  0  0
   17.8550   -9.2110   15.0800 N   0  0  0  0  0  0  0  0  0  0  0  0
   15.7120   -4.0990   16.8860 C   0  0  0  0  0  0  0  0  0  0  0  0
   14.4080   -4.3150   17.6130 C   0  0  0  0  0  0  0  0  0  0  0  0
   13.3560   -3.9990   17.0830 O   0  0  0  0  0  0  0  0  0  0  0  0
   14.4070   -4.8040   18.7290 O   0  0  0  0  0  1  0  0  0  0  0  0
   15.7550   -2.6740   16.3300 C   0  0  0  0  0  0  0  0  0  0  0  0
   16.5210   -1.7880   17.2780 C   0  0  0  0  0  0  0  0  0  0  0  0
   16.7900   -0.5860   16.9500 O   0  0  0  0  0  0  0  0  0  0  0  0
   16.8990   -2.2400   18.4090 O   0  0  0  0  0  1  0  0  0  0  0  0
    0.0000    0.0000    0.0000 H   0  0  0  0  0  0  0  0  0  0  0  0
    0.0000    0.0000    0.0000 H   0  0  0  0  0  0  0  0  0  0  0  0
    0.0000    0.0000    0.0000 H   0  0  0  0  0  0  0  0  0  0  0  0
    0.0000    0.0000    0.0000 H   0  0  0  0  0  0  0  0  0  0  0  0
    0.0000    0.0000    0.0000 H   0  0  0  0  0  0  0  0  0  0  0  0
    0.0000    0.0000    0.0000 H   0  0  0  0  0  0  0  0  0  0  0  0
    0.0000    0.0000    0.0000 H   0  0  0  0  0  0  0  0  0  0  0  0
    0.0000    0.0000    0.0000 H   0  0  0  0  0  0  0  0  0  0  0  0
    0.0000    0.0000    0.0000 H   0  0  0  0  0  0  0  0  0  0  0  0
    0.0000    0.0000    0.0000 H   0  0  0  0  0  0  0  0  0  0  0  0
    0.0000    0.0000    0.0000 H   0  0  0  0  0  0  0  0  0  0  0  0
    0.0000    0.0000    0.0000 H   0  0  0  0  0  0  0  0  0  0  0  0
    0.0000    0.0000    0.0000 H   0  0  0  0  0  0  0  0  0  0  0  0
    0.0000    0.0000    0.0000 H   0  0  0  0  0  0  0  0  0  0  0  0
    0.0000    0.0000    0.0000 H   0  0  0  0  0  0  0  0  0  0  0  0
    0.0000    0.0000    0.0000 H   0  0  0  0  0  0  0  0  0  0  0  0
    0.0000    0.0000    0.0000 H   0  0  0  0  0  0  0  0  0  0  0  0
    0.0000    0.0000    0.0000 H   0  0  0  0  0  0  0  0  0  0  0  0
    0.0000    0.0000    0.0000 H   0  0  0  0  0  0  0  0  0  0  0  0
  1 16  1  0
  1  6  1  0
  1  2  2  0
  2  3  1  0
  3  4  2  0
  3 27  1  0
  4  5  1  0
  5  6  2  0
  5 20  1  0
  6  7  1  0
  8 17  1  0
  8  9  2  0
  8 13  1  0
  9 10  1  0
 10 11  2  0
 11 12  1  0
 11 14  1  0
 12 13  2  0
 12 15  1  0
 14 16  1  0
 15 16  2  0
 17 19  1  0
 17 18  2  0
 20 21  2  0
 20 25  1  0
 21 26  1  0
 21 22  1  0
 22 23  2  0
 23 24  1  0
 24 25  2  0
 27 31  1  0
 27 28  1  0
 28 29  2  0
 28 30  1  0
 31 32  1  0
 32 33  2  0
 32 34  1  0
  2 35  1  0
  4 36  1  0
  9 37  1  0
 10 38  1  0
 13 39  1  0
 14 40  1  0
 18 41  1  0
 18 42  1  0
 19 43  1  0
 19 44  1  0
 22 45  1  0
 23 46  1  0
 24 47  1  0
 25 48  1  0
 26 49  1  0
 26 50  1  0
 27 51  1  0
 31 52  1  0
 31 53  1  0
M  CHG  4   7  -1  18   1  30  -1  34  -1
M  END
$$$$
