693
     RDKit          3D

 51 54  0  0  0  0  0  0  0  0999 V2000
   16.2200   -5.4300   13.4990 C   0  0  0  0  0  0  0  0  0  0  0  0
   16.0900   -4.4950   14.5280 C   0  0  0  0  0  0  0  0  0  0  0  0
   15.7840   -4.9110   15.8080 C   0  0  0  0  0  0  0  0  0  0  0  0
   15.6040   -6.2530   16.0820 C   0  0  0  0  0  0  0  0  0  0  0  0
   15.7300   -7.2000   15.0690 C   0  0  0  0  0  0  0  0  0  0  0  0
   16.0340   -6.7900   13.7690 C   0  0  0  0  0  0  0  0  0  0  0  0
   16.1580   -7.7060   12.7750 O   0  0  0  0  0  1  0  0  0  0  0  0
   18.2400   -3.8770    8.0760 C   0  0  0  0  0  0  0  0  0  0  0  0
   16.9310   -3.4160    7.8910 C   0  0  0  0  0  0  0  0  0  0  0  0
   16.0060   -3.5380    8.8880 C   0  0  0  0  0  0  0  0  0  0  0  0
   16.3580   -4.1230   10.0980 C   0  0  0  0  0  0  0  0  0  0  0  0
   17.6690   -4.5920   10.3020 C   0  0  0  0  0  0  0  0  0  0  0  0
   18.6100   -4.4700    9.2780 C   0  0  0  0  0  0  0  0  0  0  0  0
   15.6710   -4.3820   11.2670 N   0  0  0  0  0  0  0  0  0  0  0  0
   17.7210   -5.1050   11.5560 N   0  0  0  0  0  0  0  0  0  0  0  0
   16.5480   -4.9840   12.1280 C   0  0  0  0  0  0  0  0  0  0  0  0
   19.2310   -3.7390    6.9870 C   0  0  0  0  0  0  0  0  0  0  0  0
   18.9570   -4.2130    5.7730 N   0  0  0  0  0  0  0  0  0  0  0  0
   20.3980   -3.1410    7.2220 N   0  0  0  0  0  4  0  0  0  0  0  0
   15.5360   -8.6400   15.3680 C   0  0  0  0  0  0  0  0  0  0  0  0
   16.6030   -9.4080   15.8370 C   0  0  0  0  0  0  0  0  0  0  0  0
   16.4120  -10.7480   16.1190 C   0  0  0  0  0  0  0  0  0  0  0  0
   15.1720  -11.3290   15.9260 C   0  0  0  0  0  0  0  0  0  0  0  0
   14.1140  -10.5720   15.4560 C   0  0  0  0  0  0  0  0  0  0  0  0
   14.2890   -9.2320   15.1760 C   0  0  0  0  0  0  0  0  0  0  0  0
   17.8150   -8.8410   16.0250 F   0  0  0  0  0  0  0  0  0  0  0  0
   15.6450   -3.8950   16.9120 C   0  0  0  0  0  0  0  0  0  0  0  0
   14.2640   -3.9860   17.5060 C   0  0  0  0  0  0  0  0  0  0  0  0
   13.2900   -3.6790   16.8380 O   0  0  0  0  0  0  0  0  0  0  0  0
   14.1180   -4.3650   18.6560 O   0  0  0  0  0  1  0  0  0  0  0  0
   15.8640   -2.4910   16.3440 C   0  0  0  0  0  0  0  0  0  0  0  0
   16.6100   -1.6530   17.3490 C   0  0  0  0  0  0  0  0  0  0  0  0
   16.9620   -2.1590   18.4660 O   0  0  0  0  0  1  0  0  0  0  0  0
   16.8890   -0.4370   17.0850 O   0  0  0  0  0  0  0  0  0  0  0  0
    0.0000    0.0000    0.0000 H   0  0  0  0  0  0  0  0  0  0  0  0
    0.0000    0.0000    0.0000 H   0  0  0  0  0  0  0  0  0  0  0  0
    0.0000    0.0000    0.0000 H   0  0  0  0  0  0  0  0  0  0  0  0
    0.0000    0.0000    0.0000 H   0  0  0  0  0  0  0  0  0  0  0  0
    0.0000    0.0000    0.0000 H   0  0  0  0  0  0  0  0  0  0  0  0
    0.0000    0.0000    0.0000 H   0  0  0  0  0  0  0  0  0  0  0  0
    0.0000    0.0000    0.0000 H   0  0  0  0  0  0  0  0  0  0  0  0
    0.0000    0.0000    0.0000 H   0  0  0  0  0  0  0  0  0  0  0  0
    0.0000    0.0000    0.0000 H   0  0  0  0  0  0  0  0  0  0  0  0
    0.0000    0.0000    0.0000 H   0  0  0  0  0  0  0  0  0  0  0  0
    0.0000    0.0000    0.0000 H   0  0  0  0  0  0  0  0  0  0  0  0
    0.0000    0.0000    0.0000 H   0  0  0  0  0  0  0  0  0  0  0  0
    0.0000    0.0000    0.0000 H   0  0  0  0  0  0  0  0  0  0  0  0
    0.0000    0.0000    0.0000 H   0  0  0  0  0  0  0  0  0  0  0  0
    0.0000    0.0000    0.0000 H   0  0  0  0  0  0  0  0  0  0  0  0
    0.0000    0.0000    0.0000 H   0  0  0  0  0  0  0  0  0  0  0  0
    0.0000    0.0000    0.0000 H   0  0  0  0  0  0  0  0  0  0  0  0
  1 16  1  0
  1  6  1  0
  1  2  2  0
  2  3  1  0
  3  4  2  0
  3 27  1  0
  4  5  1  0
  5  6  2  0
  5 20  1  0
  6  7  1  0
  8 17  1  0
  8  9  2  0
  8 13  1  0
  9 10  1  0
 10 11  2  0
 11 12  1  0
 11 14  1  0
 12 13  2  0
 12 15  1  0
 14 16  1  0
 15 16  2  0
 17 18  1  0
 17 19  2  0
 20 25  1  0
 20 21  2  0
 21 26  1  0
 21 22  1  0
 22 23  2  0
 23 24  1  0
 24 25  2  0
 27 31  1  0
 27 28  1  0
 28 29  2  0
 28 30  1  0
 31 32  1  0
 32 34  2  0
 32 33  1  0
  2 35  1  0
  4 36  1  0
  9 37  1  0
 10 38  1  0
 13 39  1  0
 14 40  1  0
 18 41  1  0
 18 42  1  0
 19 43  1  0
 19 44  1  0
 22 45  1  0
 23 46  1  0
 24 47  1  0
 25 48  1  0
 27 49  1  0
 31 50  1  0
 31 51  1  0
M  CHG  4   7  -1  19   1  30  -1  33  -1
M  END
$$$$
