BAH
     RDKit          3D

 45 48  0  0  0  0  0  0  0  0999 V2000
   16.4670   -6.2260   13.6360 C   0  0  0  0  0  0  0  0  0  0  0  0
   18.0470   -3.6650    8.4100 C   0  0  0  0  0  0  0  0  0  0  0  0
   16.9100   -2.8870    8.6670 C   0  0  0  0  0  0  0  0  0  0  0  0
   16.1690   -3.0950    9.7910 C   0  0  0  0  0  0  0  0  0  0  0  0
   16.5390   -4.0920   10.7010 C   0  0  0  0  0  0  0  0  0  0  0  0
   17.6790   -4.8770   10.4490 C   0  0  0  0  0  0  0  0  0  0  0  0
   18.4270   -4.6650    9.3030 C   0  0  0  0  0  0  0  0  0  0  0  0
   16.7400   -5.4960   12.3470 C   0  0  0  0  0  0  0  0  0  0  0  0
   16.0150   -4.5230   11.8740 N   0  0  0  0  0  0  0  0  0  0  0  0
   17.7780   -5.7550   11.5110 N   0  0  0  0  0  0  0  0  0  0  0  0
   18.8410   -3.4280    7.1880 C   0  0  0  0  0  0  0  0  0  0  0  0
   20.1690   -3.5330    7.2240 N   0  0  0  0  0  4  0  0  0  0  0  0
   18.2300   -3.1090    6.0470 N   0  0  0  0  0  0  0  0  0  0  0  0
   15.6380   -2.0040   17.8630 C   0  0  0  0  0  0  0  0  0  0  0  0
   16.7190   -2.6640   18.4630 C   0  0  0  0  0  0  0  0  0  0  0  0
   17.2910   -3.7430   17.8600 C   0  0  0  0  0  0  0  0  0  0  0  0
   16.8020   -4.2020   16.6330 C   0  0  0  0  0  0  0  0  0  0  0  0
   15.7160   -3.5450   16.0240 C   0  0  0  0  0  0  0  0  0  0  0  0
   15.1390   -2.4480   16.6400 C   0  0  0  0  0  0  0  0  0  0  0  0
   16.3770   -5.2340   14.7670 C   0  0  0  0  0  0  0  0  0  0  0  0
   17.1500   -5.2260   15.8150 N   0  0  0  0  0  0  0  0  0  0  0  0
   15.4740   -4.2230   14.8460 N   0  0  0  0  0  0  0  0  0  0  0  0
   15.0270   -0.8350   18.5280 C   0  0  0  0  0  0  0  0  0  0  0  0
   15.3320    0.3980   18.1210 N   0  0  0  0  0  0  0  0  0  0  0  0
   14.1710   -1.0110   19.5330 N   0  0  0  0  0  4  0  0  0  0  0  0
   15.2330   -6.9390   13.5290 O   0  0  0  0  0  0  0  0  0  0  0  0
   17.5280   -7.1480   13.8960 O   0  0  0  0  0  0  0  0  0  0  0  0
    0.0000    0.0000    0.0000 H   0  0  0  0  0  0  0  0  0  0  0  0
    0.0000    0.0000    0.0000 H   0  0  0  0  0  0  0  0  0  0  0  0
    0.0000    0.0000    0.0000 H   0  0  0  0  0  0  0  0  0  0  0  0
    0.0000    0.0000    0.0000 H   0  0  0  0  0  0  0  0  0  0  0  0
    0.0000    0.0000    0.0000 H   0  0  0  0  0  0  0  0  0  0  0  0
    0.0000    0.0000    0.0000 H   0  0  0  0  0  0  0  0  0  0  0  0
    0.0000    0.0000    0.0000 H   0  0  0  0  0  0  0  0  0  0  0  0
    0.0000    0.0000    0.0000 H   0  0  0  0  0  0  0  0  0  0  0  0
    0.0000    0.0000    0.0000 H   0  0  0  0  0  0  0  0  0  0  0  0
    0.0000    0.0000    0.0000 H   0  0  0  0  0  0  0  0  0  0  0  0
    0.0000    0.0000    0.0000 H   0  0  0  0  0  0  0  0  0  0  0  0
    0.0000    0.0000    0.0000 H   0  0  0  0  0  0  0  0  0  0  0  0
    0.0000    0.0000    0.0000 H   0  0  0  0  0  0  0  0  0  0  0  0
    0.0000    0.0000    0.0000 H   0  0  0  0  0  0  0  0  0  0  0  0
    0.0000    0.0000    0.0000 H   0  0  0  0  0  0  0  0  0  0  0  0
    0.0000    0.0000    0.0000 H   0  0  0  0  0  0  0  0  0  0  0  0
    0.0000    0.0000    0.0000 H   0  0  0  0  0  0  0  0  0  0  0  0
    0.0000    0.0000    0.0000 H   0  0  0  0  0  0  0  0  0  0  0  0
  1  8  1  0
  1 26  1  0
  1 27  1  0
  1 20  1  0
  2 11  1  0
  2  3  2  0
  2  7  1  0
  3  4  1  0
  4  5  2  0
  5  6  1  0
  5  9  1  0
  6  7  2  0
  6 10  1  0
  8 10  1  0
  8  9  2  0
 11 13  1  0
 11 12  2  0
 14 19  2  0
 14 15  1  0
 14 23  1  0
 15 16  2  0
 16 17  1  0
 17 21  1  0
 17 18  2  0
 18 22  1  0
 18 19  1  0
 20 22  1  0
 20 21  2  0
 23 24  1  0
 23 25  2  0
  3 28  1  0
  4 29  1  0
  7 30  1  0
 10 31  1  0
 12 32  1  0
 12 33  1  0
 13 34  1  0
 13 35  1  0
 15 36  1  0
 16 37  1  0
 19 38  1  0
 22 39  1  0
 24 40  1  0
 24 41  1  0
 25 42  1  0
 25 43  1  0
 26 44  1  0
 27 45  1  0
M  CHG  2  12   1  25   1
M  END
$$$$
