BAZ
  CCTOOLS-0925261352

 42 46  0  0  0  0  0  0  0  0999 V2000
   -5.1090   -1.0590    1.4220 C   0  0  0  0  0
   -4.0750   -1.8340    1.9950 C   0  0  0  0  0
   -2.7510   -1.4520    1.9490 C   0  0  0  0  0
   -2.4350   -0.2570    1.3140 C   0  0  0  0  0
   -3.4390    0.5220    0.7420 C   0  0  0  0  0
   -4.7710    0.1360    0.7890 C   0  0  0  0  0
   -6.5590   -1.4600    1.4620 C   0  0  0  0  0
   -7.4800   -0.7170    0.9110 N   0  0  0  0  0
   -6.9470   -2.6120    2.0780 N   0  0  0  0  0
   -1.2040    0.3640    1.1190 N   0  0  0  0  0
   -2.7920    1.6160    0.2060 N   0  0  0  0  0
   -1.4740    1.4700    0.4570 C   0  0  0  0  0
    5.0060    0.9140   -1.9440 C   0  0  0  0  0
    4.7490   -0.2080   -1.1240 C   0  0  0  0  0
    3.5810   -0.3490   -0.4060 C   0  0  0  0  0
    2.6230    0.6540   -0.5090 C   0  0  0  0  0
    2.8560    1.7670   -1.3160 C   0  0  0  0  0
    4.0330    1.9080   -2.0350 C   0  0  0  0  0
    6.2770    1.0840   -2.7340 C   0  0  0  0  0
    6.5110    2.1780   -3.4070 N   0  0  0  0  0
    7.2110    0.0930   -2.7720 N   0  0  0  0  0
    1.3740    0.7750    0.0940 N   0  0  0  0  0
    1.7270    2.5500   -1.1900 N   0  0  0  0  0
    0.8820    1.9130   -0.3550 C   0  0  0  0  0
   -0.4530    2.4750    0.0250 C   0  0  0  0  0
    0.6020   -0.3900    1.5250 ZN  0  2  0  0  0
   -4.2830   -2.6430    2.4260 H   0  0  0  0  0
   -2.0730   -1.9900    2.3420 H   0  0  0  0  0
   -5.4280    0.6740    0.3990 H   0  0  0  0  0
   -8.3300   -0.9880    0.9560 H   0  0  0  0  0
   -7.8050   -2.8420    2.0950 H   0  0  0  0  0
   -6.3880   -3.1640    2.4770 H   0  0  0  0  0
   -3.1590    2.2870   -0.2210 H   0  0  0  0  0
    5.3940   -0.8870   -1.0490 H   0  0  0  0  0
    3.4320   -1.1100    0.1410 H   0  0  0  0  0
    4.1670    2.6620   -2.5700 H   0  0  0  0  0
    7.2730    2.2390   -3.8680 H   0  0  0  0  0
    7.9680    0.2110   -3.2200 H   0  0  0  0  0
    7.1050   -0.6910   -2.3840 H   0  0  0  0  0
    1.5740    3.3180   -1.5820 H   0  0  0  0  0
   -0.3220    3.1130    0.7520 H   0  0  0  0  0
   -0.8080    2.9670   -0.7390 H   0  0  0  0  0
  1  2  1  0  0  0
  1  6  2  0  0  0
  1  7  1  0  0  0
  2  3  2  0  0  0
  2 27  1  0  0  0
  3  4  1  0  0  0
  3 28  1  0  0  0
  4  5  2  0  0  0
  4 10  1  0  0  0
  5  6  1  0  0  0
  5 11  1  0  0  0
  6 29  1  0  0  0
  7  8  2  0  0  0
  7  9  1  0  0  0
  8 30  1  0  0  0
  9 31  1  0  0  0
  9 32  1  0  0  0
 10 12  2  0  0  0
 11 12  1  0  0  0
 11 33  1  0  0  0
 12 25  1  0  0  0
 13 14  1  0  0  0
 13 18  2  0  0  0
 13 19  1  0  0  0
 14 15  2  0  0  0
 14 34  1  0  0  0
 15 16  1  0  0  0
 15 35  1  0  0  0
 16 17  2  0  0  0
 16 22  1  0  0  0
 17 18  1  0  0  0
 17 23  1  0  0  0
 18 36  1  0  0  0
 19 20  2  0  0  0
 19 21  1  0  0  0
 20 37  1  0  0  0
 21 38  1  0  0  0
 21 39  1  0  0  0
 22 24  2  0  0  0
 22 26  1  0  0  0
 23 24  1  0  0  0
 23 40  1  0  0  0
 24 25  1  0  0  0
 25 41  1  0  0  0
 25 42  1  0  0  0
 26 10  1  0  0  0
M  CHG  1  26   2
M  END
$$$$
