BHC
  CCTOOLS-0919241033

 30 30  0  0  0  0  0  0  0  0999 V2000
   -0.0070   -0.0070    1.4030 C   0  0  0  0  0
   -0.0150    0.0200    2.8840 C   0  0  0  0  0
   -0.0170    1.0820    3.4710 O   0  0  0  0  0
   -0.0190   -1.1330    3.5790 O   0  0  0  0  0
    1.2110   -0.0210    0.7080 C   0  0  0  0  0
    2.4900   -0.0080    1.4550 C   0  0  0  0  0
    3.0130   -1.0540    1.7810 O   0  0  0  0  0
    3.0720    1.1630    1.7730 O   0  0  0  0  0
    1.2180   -0.0470   -0.6940 C   0  0  0  0  0
    2.5050   -0.0630   -1.4280 C   0  0  0  0  0
    3.0310   -1.1200   -1.7080 O   0  0  0  0  0
    3.0910    1.0960   -1.7830 O   0  0  0  0  0
    0.0070   -0.0600   -1.4010 C   0  0  0  0  0
    0.0150   -0.0890   -2.8830 C   0  0  0  0  0
    0.0170   -1.1520   -3.4690 O   0  0  0  0  0
    0.0190    1.0640   -3.5780 O   0  0  0  0  0
   -1.2110   -0.0460   -0.7070 C   0  0  0  0  0
   -2.4900   -0.0600   -1.4540 C   0  0  0  0  0
   -3.0140   -1.1170   -1.7400 O   0  0  0  0  0
   -3.0710    1.0990   -1.8160 O   0  0  0  0  0
   -1.2180   -0.0250    0.6950 C   0  0  0  0  0
   -2.5050   -0.0100    1.4290 C   0  0  0  0  0
   -3.0350   -1.0550    1.7460 O   0  0  0  0  0
   -3.0870    1.1620    1.7450 O   0  0  0  0  0
   -0.0240   -1.1150    4.5460 H   0  0  0  0  0
    3.9070    1.1710    2.2610 H   0  0  0  0  0
    3.9310    1.0860   -2.2620 H   0  0  0  0  0
    0.0240    1.0450   -4.5450 H   0  0  0  0  0
   -3.9060    1.0900   -2.3040 H   0  0  0  0  0
   -3.9270    1.1720    2.2240 H   0  0  0  0  0
  1  2  1  0  0  0
  1  5  2  0  0  0
  1 21  1  0  0  0
  2  3  2  0  0  0
  2  4  1  0  0  0
  4 25  1  0  0  0
  5  6  1  0  0  0
  5  9  1  0  0  0
  6  7  2  0  0  0
  6  8  1  0  0  0
  8 26  1  0  0  0
  9 10  1  0  0  0
  9 13  2  0  0  0
 10 11  2  0  0  0
 10 12  1  0  0  0
 12 27  1  0  0  0
 13 14  1  0  0  0
 13 17  1  0  0  0
 14 15  2  0  0  0
 14 16  1  0  0  0
 16 28  1  0  0  0
 17 18  1  0  0  0
 17 21  2  0  0  0
 18 19  2  0  0  0
 18 20  1  0  0  0
 20 29  1  0  0  0
 21 22  1  0  0  0
 22 23  2  0  0  0
 22 24  1  0  0  0
 24 30  1  0  0  0
M  END
$$$$
