BOZ
  CCTOOLS-0925261352

 41 45  0  0  0  0  0  0  0  0999 V2000
   -5.2290    0.0490    0.0910 C   0  0  0  0  0
   -5.1110    0.4070   -1.2710 C   0  0  0  0  0
   -3.9830    1.0120   -1.7830 C   0  0  0  0  0
   -2.9310    1.2800   -0.9140 C   0  0  0  0  0
   -3.0220    0.9210    0.4310 C   0  0  0  0  0
   -4.1570    0.3110    0.9430 C   0  0  0  0  0
   -6.4500   -0.6160    0.6670 C   0  0  0  0  0
   -7.4790   -0.9990   -0.1390 N   0  0  0  0  0
   -6.5670   -0.8120    1.9520 N   0  0  0  0  0
   -1.6930    1.8530   -1.1460 N   0  0  0  0  0
   -1.8310    1.3090    0.9970 N   0  0  0  0  0
   -1.0630    1.8430    0.0070 C   0  0  0  0  0
    5.0080   -1.2270   -0.1110 C   0  0  0  0  0
    4.0730   -1.9510   -0.8860 C   0  0  0  0  0
    2.7940   -1.4940   -1.1210 C   0  0  0  0  0
    2.4190   -0.2760   -0.5640 C   0  0  0  0  0
    3.3280    0.4550    0.2030 C   0  0  0  0  0
    4.6150   -0.0070    0.4360 C   0  0  0  0  0
    6.4090   -1.7090    0.1560 C   0  0  0  0  0
    6.8370   -2.9100   -0.3260 N   0  0  0  0  0
    7.2500   -0.9880    0.8460 N   0  0  0  0  0
    1.2210    0.4160   -0.6370 N   0  0  0  0  0
    2.6570    1.5890    0.5940 N   0  0  0  0  0
    1.4060    1.5190    0.0630 C   0  0  0  0  0
    0.2690    2.4380    0.1640 C   0  0  0  0  0
    0.4470    3.6520    0.1060 O   0  0  0  0  0
   -0.2150    0.7960   -2.0640 ZN  0  2  0  0  0
   -5.8230    0.2380   -1.8600 H   0  0  0  0  0
   -3.9280    1.2490   -2.7010 H   0  0  0  0  0
   -4.2000    0.0870    1.8490 H   0  0  0  0  0
   -8.2230   -1.3320    0.2130 H   0  0  0  0  0
   -7.4450   -0.9640   -1.0200 H   0  0  0  0  0
   -7.3150   -1.1940    2.2580 H   0  0  0  0  0
   -1.6000    1.2150    1.8480 H   0  0  0  0  0
    4.3200   -2.7750   -1.2640 H   0  0  0  0  0
    2.1830   -1.9980   -1.6450 H   0  0  0  0  0
    5.2060    0.4970    0.9550 H   0  0  0  0  0
    7.6710   -3.1770   -0.1800 H   0  0  0  0  0
    6.3240   -3.4630   -0.7800 H   0  0  0  0  0
    8.0750   -1.3050    0.9790 H   0  0  0  0  0
    2.9790    2.2460    1.0950 H   0  0  0  0  0
  1  2  1  0  0  0
  1  6  2  0  0  0
  1  7  1  0  0  0
  2  3  2  0  0  0
  2 28  1  0  0  0
  3  4  1  0  0  0
  3 29  1  0  0  0
  4  5  2  0  0  0
  4 10  1  0  0  0
  5  6  1  0  0  0
  5 11  1  0  0  0
  6 30  1  0  0  0
  7  8  1  0  0  0
  7  9  2  0  0  0
  8 31  1  0  0  0
  8 32  1  0  0  0
  9 33  1  0  0  0
 10 12  2  0  0  0
 11 12  1  0  0  0
 11 34  1  0  0  0
 12 25  1  0  0  0
 13 14  1  0  0  0
 13 18  2  0  0  0
 13 19  1  0  0  0
 14 15  2  0  0  0
 14 35  1  0  0  0
 15 16  1  0  0  0
 15 36  1  0  0  0
 16 17  2  0  0  0
 16 22  1  0  0  0
 17 18  1  0  0  0
 17 23  1  0  0  0
 18 37  1  0  0  0
 19 20  1  0  0  0
 19 21  2  0  0  0
 20 38  1  0  0  0
 20 39  1  0  0  0
 21 40  1  0  0  0
 22 24  2  0  0  0
 22 27  1  0  0  0
 23 24  1  0  0  0
 23 41  1  0  0  0
 24 25  1  0  0  0
 25 26  2  0  0  0
 27 10  1  0  0  0
M  CHG  1  27   2
M  END
$$$$
