13U
     RDKit          3D

 65 67  0  0  0  0  0  0  0  0999 V2000
   17.5960   -8.9840   12.2640 C   0  0  0  0  0  0  0  0  0  0  0  0
   17.7740   -7.9250   11.7010 O   0  0  0  0  0  0  0  0  0  0  0  0
   16.5260   -9.1490   13.0670 N   0  0  0  0  0  0  0  0  0  0  0  0
   15.4480   -8.1650   13.2760 C   0  0  0  0  0  0  0  0  0  0  0  0
   14.8520   -8.5180   14.6610 C   0  0  0  0  0  0  0  0  0  0  0  0
   14.9310  -10.0670   14.6490 C   0  0  0  0  0  0  0  0  0  0  0  0
   16.2400  -10.3410   13.8790 C   0  0  0  0  0  0  0  0  0  0  0  0
   16.0090   -6.7670   13.2870 C   0  0  0  0  0  0  0  0  0  0  0  0
   16.6340   -6.3710   14.2490 O   0  0  0  0  0  0  0  0  0  0  0  0
   15.8220   -5.9570   12.2260 N   0  0  0  0  0  0  0  0  0  0  0  0
   16.3720   -4.5990   12.2350 C   0  0  0  0  0  0  0  0  0  0  0  0
   16.9990   -4.3030   10.8960 C   0  0  0  0  0  0  0  0  0  0  0  0
   16.3350   -3.4990    9.9870 C   0  0  0  0  0  0  0  0  0  0  0  0
   16.9080   -3.2190    8.7630 C   0  0  0  0  0  0  0  0  0  0  0  0
   18.1530   -3.7580    8.4390 C   0  0  0  0  0  0  0  0  0  0  0  0
   18.8150   -4.5710    9.3580 C   0  0  0  0  0  0  0  0  0  0  0  0
   18.2350   -4.8390   10.5810 C   0  0  0  0  0  0  0  0  0  0  0  0
   18.7690   -3.4660    7.1240 C   0  0  0  0  0  0  0  0  0  0  0  0
   18.0220   -3.0980    6.1230 N   0  0  0  0  0  0  0  0  0  0  0  0
   20.1320   -3.5820    6.9620 N   0  0  0  0  0  0  0  0  0  0  0  0
   18.5720  -10.1160   12.0660 C   0  0  0  0  0  0  0  0  0  0  0  0
   18.7110  -10.3960   10.6310 N   0  0  0  0  0  0  0  0  0  0  0  0
   18.5380  -11.8280   10.3550 C   0  0  0  0  0  0  0  0  0  0  0  0
   17.1840  -12.2910   10.8970 C   0  0  0  0  0  0  0  0  0  0  0  0
   16.4040  -12.9980    9.7860 C   0  0  0  0  0  0  0  0  0  0  0  0
   16.9790  -14.3990    9.5720 C   0  0  0  0  0  0  0  0  0  0  0  0
   18.2970  -14.2970    8.8030 C   0  0  0  0  0  0  0  0  0  0  0  0
   19.4520  -14.7260    9.7100 C   0  0  0  0  0  0  0  0  0  0  0  0
   19.2730  -14.0980   11.0940 C   0  0  0  0  0  0  0  0  0  0  0  0
   19.6570  -12.6190   11.0360 C   0  0  0  0  0  0  0  0  0  0  0  0
    0.0000    0.0000    0.0000 H   0  0  0  0  0  0  0  0  0  0  0  0
    0.0000    0.0000    0.0000 H   0  0  0  0  0  0  0  0  0  0  0  0
    0.0000    0.0000    0.0000 H   0  0  0  0  0  0  0  0  0  0  0  0
    0.0000    0.0000    0.0000 H   0  0  0  0  0  0  0  0  0  0  0  0
    0.0000    0.0000    0.0000 H   0  0  0  0  0  0  0  0  0  0  0  0
    0.0000    0.0000    0.0000 H   0  0  0  0  0  0  0  0  0  0  0  0
    0.0000    0.0000    0.0000 H   0  0  0  0  0  0  0  0  0  0  0  0
    0.0000    0.0000    0.0000 H   0  0  0  0  0  0  0  0  0  0  0  0
    0.0000    0.0000    0.0000 H   0  0  0  0  0  0  0  0  0  0  0  0
    0.0000    0.0000    0.0000 H   0  0  0  0  0  0  0  0  0  0  0  0
    0.0000    0.0000    0.0000 H   0  0  0  0  0  0  0  0  0  0  0  0
    0.0000    0.0000    0.0000 H   0  0  0  0  0  0  0  0  0  0  0  0
    0.0000    0.0000    0.0000 H   0  0  0  0  0  0  0  0  0  0  0  0
    0.0000    0.0000    0.0000 H   0  0  0  0  0  0  0  0  0  0  0  0
    0.0000    0.0000    0.0000 H   0  0  0  0  0  0  0  0  0  0  0  0
    0.0000    0.0000    0.0000 H   0  0  0  0  0  0  0  0  0  0  0  0
    0.0000    0.0000    0.0000 H   0  0  0  0  0  0  0  0  0  0  0  0
    0.0000    0.0000    0.0000 H   0  0  0  0  0  0  0  0  0  0  0  0
    0.0000    0.0000    0.0000 H   0  0  0  0  0  0  0  0  0  0  0  0
    0.0000    0.0000    0.0000 H   0  0  0  0  0  0  0  0  0  0  0  0
    0.0000    0.0000    0.0000 H   0  0  0  0  0  0  0  0  0  0  0  0
    0.0000    0.0000    0.0000 H   0  0  0  0  0  0  0  0  0  0  0  0
    0.0000    0.0000    0.0000 H   0  0  0  0  0  0  0  0  0  0  0  0
    0.0000    0.0000    0.0000 H   0  0  0  0  0  0  0  0  0  0  0  0
    0.0000    0.0000    0.0000 H   0  0  0  0  0  0  0  0  0  0  0  0
    0.0000    0.0000    0.0000 H   0  0  0  0  0  0  0  0  0  0  0  0
    0.0000    0.0000    0.0000 H   0  0  0  0  0  0  0  0  0  0  0  0
    0.0000    0.0000    0.0000 H   0  0  0  0  0  0  0  0  0  0  0  0
    0.0000    0.0000    0.0000 H   0  0  0  0  0  0  0  0  0  0  0  0
    0.0000    0.0000    0.0000 H   0  0  0  0  0  0  0  0  0  0  0  0
    0.0000    0.0000    0.0000 H   0  0  0  0  0  0  0  0  0  0  0  0
    0.0000    0.0000    0.0000 H   0  0  0  0  0  0  0  0  0  0  0  0
    0.0000    0.0000    0.0000 H   0  0  0  0  0  0  0  0  0  0  0  0
    0.0000    0.0000    0.0000 H   0  0  0  0  0  0  0  0  0  0  0  0
    0.0000    0.0000    0.0000 H   0  0  0  0  0  0  0  0  0  0  0  0
  1  2  2  0
  1 21  1  0
  1  3  1  0
  3  4  1  0
  3  7  1  0
  4  8  1  0
  4  5  1  0
  5  6  1  0
  6  7  1  0
  8 10  1  0
  8  9  2  0
 10 11  1  0
 11 12  1  0
 12 13  2  0
 12 17  1  0
 13 14  1  0
 14 15  2  0
 15 18  1  0
 15 16  1  0
 16 17  2  0
 18 19  2  3
 18 20  1  0
 21 22  1  0
 22 23  1  0
 23 24  1  0
 23 30  1  0
 24 25  1  0
 25 26  1  0
 26 27  1  0
 27 28  1  0
 28 29  1  0
 29 30  1  0
  4 31  1  0
  5 32  1  0
  5 33  1  0
  6 34  1  0
  6 35  1  0
  7 36  1  0
  7 37  1  0
 10 38  1  0
 11 39  1  0
 11 40  1  0
 13 41  1  0
 14 42  1  0
 16 43  1  0
 17 44  1  0
 19 45  1  0
 20 46  1  0
 20 47  1  0
 21 48  1  0
 21 49  1  0
 22 50  1  0
 23 51  1  0
 24 52  1  0
 24 53  1  0
 25 54  1  0
 25 55  1  0
 26 56  1  0
 26 57  1  0
 27 58  1  0
 27 59  1  0
 28 60  1  0
 28 61  1  0
 29 62  1  0
 29 63  1  0
 30 64  1  0
 30 65  1  0
M  END
$$$$
