@<TRIPOS>MOLECULE
LIG
   65    67     1     0     0
SMALL
gas


@<TRIPOS>ATOM
      1 C1          17.5960    -8.9840    12.2640 c          1 LIG       0.228857
      2 O1          17.7740    -7.9250    11.7010 o          1 LIG      -0.275989
      3 N1          16.5260    -9.1490    13.0670 n          1 LIG      -0.288827
      4 C2          15.4480    -8.1650    13.2760 c5         1 LIG       0.102125
      5 C3          14.8520    -8.5180    14.6610 c5         1 LIG      -0.024096
      6 C4          14.9310   -10.0670    14.6490 c5         1 LIG      -0.035023
      7 C5          16.2400   -10.3410    13.8790 c5         1 LIG       0.015038
      8 C6          16.0090    -6.7670    13.2870 c          1 LIG       0.232631
      9 O2          16.6340    -6.3710    14.2490 o          1 LIG      -0.275547
     10 N2          15.8220    -5.9570    12.2260 ns         1 LIG      -0.309608
     11 C7          16.3720    -4.5990    12.2350 c3         1 LIG       0.036297
     12 C8          16.9990    -4.3030    10.8960 ca         1 LIG      -0.030813
     13 C9          16.3350    -3.4990     9.9870 ca         1 LIG      -0.056735
     14 C10         16.9080    -3.2190     8.7630 ca         1 LIG      -0.051186
     15 C11         18.1530    -3.7580     8.4390 ca         1 LIG       0.013738
     16 C12         18.8150    -4.5710     9.3580 ca         1 LIG      -0.051186
     17 C13         18.2350    -4.8390    10.5810 ca         1 LIG      -0.056735
     18 C14         18.7690    -3.4660     7.1240 ce         1 LIG       0.113896
     19 N3          18.0220    -3.0980     6.1230 n2         1 LIG      -0.286437
     20 N4          20.1320    -3.5820     6.9620 nv         1 LIG      -0.343236
     21 C15         18.5720   -10.1160    12.0660 c3         1 LIG       0.073530
     22 N5          18.7110   -10.3960    10.6310 n7         1 LIG      -0.305790
     23 C16         18.5380   -11.8280    10.3550 c3         1 LIG       0.007189
     24 C17         17.1840   -12.2910    10.8970 c3         1 LIG      -0.037751
     25 C18         16.4040   -12.9980     9.7860 c3         1 LIG      -0.051825
     26 C19         16.9790   -14.3990     9.5720 c3         1 LIG      -0.053248
     27 C20         18.2970   -14.2970     8.8030 c3         1 LIG      -0.053304
     28 C21         19.4520   -14.7260     9.7100 c3         1 LIG      -0.053248
     29 C22         19.2730   -14.0980    11.0940 c3         1 LIG      -0.051825
     30 C23         19.6570   -12.6190    11.0360 c3         1 LIG      -0.037751
     31 H1           0.0000     0.0000     0.0000 h1         1 LIG       0.060731
     32 H2           0.0000     0.0000     0.0000 hc         1 LIG       0.029147
     33 H3           0.0000     0.0000     0.0000 hc         1 LIG       0.029147
     34 H4           0.0000     0.0000     0.0000 hc         1 LIG       0.028347
     35 H5           0.0000     0.0000     0.0000 hc         1 LIG       0.028347
     36 H6           0.0000     0.0000     0.0000 h1         1 LIG       0.046972
     37 H7           0.0000     0.0000     0.0000 h1         1 LIG       0.046972
     38 H8           0.0000     0.0000     0.0000 hn         1 LIG       0.149760
     39 H9           0.0000     0.0000     0.0000 h1         1 LIG       0.051790
     40 H10          0.0000     0.0000     0.0000 h1         1 LIG       0.051790
     41 H11          0.0000     0.0000     0.0000 ha         1 LIG       0.062645
     42 H12          0.0000     0.0000     0.0000 ha         1 LIG       0.063042
     43 H13          0.0000     0.0000     0.0000 ha         1 LIG       0.063042
     44 H14          0.0000     0.0000     0.0000 ha         1 LIG       0.062645
     45 H15          0.0000     0.0000     0.0000 hn         1 LIG       0.189193
     46 H16          0.0000     0.0000     0.0000 hn         1 LIG       0.144153
     47 H17          0.0000     0.0000     0.0000 hn         1 LIG       0.144153
     48 H18          0.0000     0.0000     0.0000 h1         1 LIG       0.052879
     49 H19          0.0000     0.0000     0.0000 h1         1 LIG       0.052879
     50 H20          0.0000     0.0000     0.0000 hn         1 LIG       0.122978
     51 H21          0.0000     0.0000     0.0000 h1         1 LIG       0.046491
     52 H22          0.0000     0.0000     0.0000 hc         1 LIG       0.028248
     53 H23          0.0000     0.0000     0.0000 hc         1 LIG       0.028248
     54 H24          0.0000     0.0000     0.0000 hc         1 LIG       0.026711
     55 H25          0.0000     0.0000     0.0000 hc         1 LIG       0.026711
     56 H26          0.0000     0.0000     0.0000 hc         1 LIG       0.026654
     57 H27          0.0000     0.0000     0.0000 hc         1 LIG       0.026654
     58 H28          0.0000     0.0000     0.0000 hc         1 LIG       0.026653
     59 H29          0.0000     0.0000     0.0000 hc         1 LIG       0.026653
     60 H30          0.0000     0.0000     0.0000 hc         1 LIG       0.026654
     61 H31          0.0000     0.0000     0.0000 hc         1 LIG       0.026654
     62 H32          0.0000     0.0000     0.0000 hc         1 LIG       0.026711
     63 H33          0.0000     0.0000     0.0000 hc         1 LIG       0.026711
     64 H34          0.0000     0.0000     0.0000 hc         1 LIG       0.028248
     65 H35          0.0000     0.0000     0.0000 hc         1 LIG       0.028248
@<TRIPOS>BOND
     1     1     2 2   
     2     1    21 1   
     3     1     3 1   
     4     3     4 1   
     5     3     7 1   
     6     4     8 1   
     7     4     5 1   
     8     5     6 1   
     9     6     7 1   
    10     8    10 1   
    11     8     9 2   
    12    10    11 1   
    13    11    12 1   
    14    12    13 ar  
    15    12    17 ar  
    16    13    14 ar  
    17    14    15 ar  
    18    15    18 1   
    19    15    16 ar  
    20    16    17 ar  
    21    18    19 2   
    22    18    20 1   
    23    21    22 1   
    24    22    23 1   
    25    23    24 1   
    26    23    30 1   
    27    24    25 1   
    28    25    26 1   
    29    26    27 1   
    30    27    28 1   
    31    28    29 1   
    32    29    30 1   
    33     4    31 1   
    34     5    32 1   
    35     5    33 1   
    36     6    34 1   
    37     6    35 1   
    38     7    36 1   
    39     7    37 1   
    40    10    38 1   
    41    11    39 1   
    42    11    40 1   
    43    13    41 1   
    44    14    42 1   
    45    16    43 1   
    46    17    44 1   
    47    19    45 1   
    48    20    46 1   
    49    20    47 1   
    50    21    48 1   
    51    21    49 1   
    52    22    50 1   
    53    23    51 1   
    54    24    52 1   
    55    24    53 1   
    56    25    54 1   
    57    25    55 1   
    58    26    56 1   
    59    26    57 1   
    60    27    58 1   
    61    27    59 1   
    62    28    60 1   
    63    28    61 1   
    64    29    62 1   
    65    29    63 1   
    66    30    64 1   
    67    30    65 1   
@<TRIPOS>SUBSTRUCTURE
     1 LIG         1 TEMP              0 ****  ****    0 ROOT
