UNK
 OpenBabel09302613293D

 65 67  0  0  0  0  0  0  0  0999 V2000
   16.6730   53.5840   14.6560 C   0  0  0  0  0  0  0  0  0  0  0  0
   17.1380   53.0400   15.6390 O   0  0  0  0  0  0  0  0  0  0  0  0
   15.5380   54.3840   14.6710 N   0  0  0  0  0  0  0  0  0  0  0  0
   15.0710   55.2990   13.6370 *   0  0  1  0  0  0  0  0  0  0  0  0
   13.5990   55.5260   13.8210 *   0  0  0  0  0  0  0  0  0  0  0  0
   13.3140   54.9650   15.1790 *   0  0  0  0  0  0  0  0  0  0  0  0
   14.5400   54.1880   15.6170 *   0  0  0  0  0  0  0  0  0  0  0  0
   15.8350   56.6350   13.5300 C   0  0  0  0  0  0  0  0  0  0  0  0
   16.6070   57.0060   14.4360 O   0  0  0  0  0  0  0  0  0  0  0  0
   15.5840   57.4250   12.4550 *   0  0  0  0  0  0  0  0  0  0  0  0
   16.3600   58.6360   12.2750 *   0  0  0  0  0  0  0  0  0  0  0  0
   17.2140   58.5610   11.0120 Ca  0  0  0  0  0  0  0  0  0  0  0  0
   16.6240   58.7800    9.7570 Ca  0  0  0  0  0  0  0  0  0  0  0  0
   17.4370   58.7240    8.6140 Ca  0  0  0  0  0  0  0  0  0  0  0  0
   18.7670   58.3420    8.6970 Ca  0  0  0  0  0  0  0  0  0  0  0  0
   19.3050   58.0020   10.0500 Ca  0  0  0  0  0  0  0  0  0  0  0  0
   18.5540   58.2510   11.1510 Ca  0  0  0  0  0  0  0  0  0  0  0  0
   19.6370   58.0990    7.5420 Ce  0  0  0  0  0  0  0  0  0  0  0  0
   20.6440   57.3820    7.6960 *   0  0  0  0  0  0  0  0  0  0  0  0
   19.4540   59.0260    6.5890 *   0  0  0  0  0  0  0  0  0  0  0  0
   17.2810   53.3970   13.2340 *   0  0  0  0  0  0  0  0  0  0  0  0
   18.1630   52.1700   13.1100 *   0  0  0  0  0  0  0  0  0  0  0  0
   17.5160   50.7810   13.2150 *   0  0  0  0  0  0  0  0  0  0  0  0
   16.7680   50.5190   11.8490 *   0  0  0  0  0  0  0  0  0  0  0  0
   15.8270   49.2590   11.6390 *   0  0  0  0  0  0  0  0  0  0  0  0
   16.5430   48.1390   10.8210 *   0  0  0  0  0  0  0  0  0  0  0  0
   18.0480   47.9090   11.0650 *   0  0  0  0  0  0  0  0  0  0  0  0
   18.4830   47.3780   12.4860 *   0  0  0  0  0  0  0  0  0  0  0  0
   18.1670   48.2850   13.7080 *   0  0  0  0  0  0  0  0  0  0  0  0
   18.6200   49.7530   13.6180 *   0  0  0  0  0  0  0  0  0  0  0  0
   15.1880   54.8710   12.6340 *   0  0  0  0  0  0  0  0  0  0  0  0
   13.0620   54.9450   13.0620 *   0  0  0  0  0  0  0  0  0  0  0  0
   13.3490   56.5930   13.8540 *   0  0  0  0  0  0  0  0  0  0  0  0
   13.0640   55.7450   15.9080 *   0  0  0  0  0  0  0  0  0  0  0  0
   12.4680   54.2890   14.9990 *   0  0  0  0  0  0  0  0  0  0  0  0
   14.9280   54.5670   16.5700 *   0  0  0  0  0  0  0  0  0  0  0  0
   14.3170   53.1150   15.6640 *   0  0  0  0  0  0  0  0  0  0  0  0
   14.9030   57.1740   11.7490 *   0  0  0  0  0  0  0  0  0  0  0  0
   16.9010   58.9500   13.1760 *   0  0  0  0  0  0  0  0  0  0  0  0
   15.6370   59.4530   12.1610 *   0  0  0  0  0  0  0  0  0  0  0  0
   15.5580   58.9710    9.8390 *   0  0  0  0  0  0  0  0  0  0  0  0
   16.9440   59.0010    7.6870 *   0  0  0  0  0  0  0  0  0  0  0  0
   20.3070   57.5870   10.1040 *   0  0  0  0  0  0  0  0  0  0  0  0
   18.9380   57.9770   12.1290 *   0  0  0  0  0  0  0  0  0  0  0  0
   21.3210   57.4190    6.9290 *   0  0  0  0  0  0  0  0  0  0  0  0
   20.0660   58.8990    5.7930 *   0  0  0  0  0  0  0  0  0  0  0  0
   19.3920   59.9530    6.9900 *   0  0  0  0  0  0  0  0  0  0  0  0
   16.3740   53.2620   12.6310 *   0  0  0  0  0  0  0  0  0  0  0  0
   17.8240   54.3160   12.9810 *   0  0  0  0  0  0  0  0  0  0  0  0
   18.8530   52.2810   13.8520 *   0  0  0  0  0  0  0  0  0  0  0  0
   16.8170   50.9350   14.0460 *   0  0  0  0  0  0  0  0  0  0  0  0
   16.0370   51.3280   11.7300 *   0  0  0  0  0  0  0  0  0  0  0  0
   17.5210   50.6700   11.0670 *   0  0  0  0  0  0  0  0  0  0  0  0
   15.6170   48.7350   12.5800 *   0  0  0  0  0  0  0  0  0  0  0  0
   14.9430   49.5710   11.0690 *   0  0  0  0  0  0  0  0  0  0  0  0
   16.4290   48.3730    9.7550 *   0  0  0  0  0  0  0  0  0  0  0  0
   16.0520   47.1640   10.9320 *   0  0  0  0  0  0  0  0  0  0  0  0
   18.6340   48.8240   10.9170 *   0  0  0  0  0  0  0  0  0  0  0  0
   18.2440   47.1200   10.3280 *   0  0  0  0  0  0  0  0  0  0  0  0
   17.9790   46.4090   12.5920 *   0  0  0  0  0  0  0  0  0  0  0  0
   19.5210   47.0480   12.3560 *   0  0  0  0  0  0  0  0  0  0  0  0
   18.6130   47.7830   14.5760 *   0  0  0  0  0  0  0  0  0  0  0  0
   17.1140   48.0960   13.9490 *   0  0  0  0  0  0  0  0  0  0  0  0
   19.5400   49.8910   13.0360 *   0  0  0  0  0  0  0  0  0  0  0  0
   18.8980   50.0200   14.6450 *   0  0  0  0  0  0  0  0  0  0  0  0
  1  2  2  0  0  0  0
  1  3  1  0  0  0  0
  1 21  1  0  0  0  0
  3  4  1  0  0  0  0
  3  7  1  0  0  0  0
  4  5  1  0  0  0  0
  4  8  1  0  0  0  0
  4 31  1  6  0  0  0
  5  6  1  0  0  0  0
  5 32  1  0  0  0  0
  5 33  1  0  0  0  0
  6  7  1  0  0  0  0
  6 34  1  0  0  0  0
  6 35  1  0  0  0  0
  7 36  1  0  0  0  0
  7 37  1  0  0  0  0
  8  9  2  0  0  0  0
  8 10  1  0  0  0  0
 10 11  1  0  0  0  0
 10 38  1  0  0  0  0
 11 12  1  0  0  0  0
 11 39  1  0  0  0  0
 11 40  1  0  0  0  0
 12 13  2  0  0  0  0
 12 17  1  0  0  0  0
 13 14  1  0  0  0  0
 13 41  1  0  0  0  0
 14 15  2  0  0  0  0
 14 42  1  0  0  0  0
 15 16  1  0  0  0  0
 15 18  1  0  0  0  0
 16 17  2  0  0  0  0
 16 43  1  0  0  0  0
 17 44  1  0  0  0  0
 18 19  2  3  0  0  0
 18 20  1  0  0  0  0
 19 45  1  0  0  0  0
 20 46  1  0  0  0  0
 20 47  1  0  0  0  0
 21 22  1  0  0  0  0
 21 48  1  0  0  0  0
 21 49  1  0  0  0  0
 22 23  1  0  0  0  0
 22 50  1  0  0  0  0
 23 24  1  0  0  0  0
 23 30  1  0  0  0  0
 23 51  1  0  0  0  0
 24 25  1  0  0  0  0
 24 52  1  0  0  0  0
 24 53  1  0  0  0  0
 25 26  1  0  0  0  0
 25 54  1  0  0  0  0
 25 55  1  0  0  0  0
 26 27  1  0  0  0  0
 26 56  1  0  0  0  0
 26 57  1  0  0  0  0
 27 28  1  0  0  0  0
 27 58  1  0  0  0  0
 27 59  1  0  0  0  0
 28 29  1  0  0  0  0
 28 60  1  0  0  0  0
 28 61  1  0  0  0  0
 29 30  1  0  0  0  0
 29 62  1  0  0  0  0
 29 63  1  0  0  0  0
 30 64  1  0  0  0  0
 30 65  1  0  0  0  0
M  END
$$$$
