@<TRIPOS>MOLECULE
UNK
   65    67     1     0     0
SMALL
gas


@<TRIPOS>ATOM
      1 C1x         16.6730    53.5840    14.6560 c          1 UNK       0.228857
      2 O1x         17.1380    53.0400    15.6390 o          1 UNK      -0.275989
      3 N1x         15.5380    54.3840    14.6710 n          1 UNK      -0.288827
      4 C2x         15.0710    55.2990    13.6370 c5         1 UNK       0.102125
      5 C3x         13.5990    55.5260    13.8210 c5         1 UNK      -0.024096
      6 C4x         13.3140    54.9650    15.1790 c5         1 UNK      -0.035023
      7 C5x         14.5400    54.1880    15.6170 c5         1 UNK       0.015038
      8 C6x         15.8350    56.6350    13.5300 c          1 UNK       0.232631
      9 O2x         16.6070    57.0060    14.4360 o          1 UNK      -0.275547
     10 N2x         15.5840    57.4250    12.4550 ns         1 UNK      -0.309608
     11 C7x         16.3600    58.6360    12.2750 c3         1 UNK       0.036297
     12 C8x         17.2140    58.5610    11.0120 ca         1 UNK      -0.030813
     13 C9x         16.6240    58.7800     9.7570 ca         1 UNK      -0.056735
     14 C10x        17.4370    58.7240     8.6140 ca         1 UNK      -0.051186
     15 C11x        18.7670    58.3420     8.6970 ca         1 UNK       0.013738
     16 C12x        19.3050    58.0020    10.0500 ca         1 UNK      -0.051186
     17 C13x        18.5540    58.2510    11.1510 ca         1 UNK      -0.056735
     18 C14x        19.6370    58.0990     7.5420 ce         1 UNK       0.113896
     19 N3x         20.6440    57.3820     7.6960 n2         1 UNK      -0.286437
     20 N4x         19.4540    59.0260     6.5890 nv         1 UNK      -0.343236
     21 C15x        17.2810    53.3970    13.2340 c3         1 UNK       0.073530
     22 N5x         18.1630    52.1700    13.1100 n7         1 UNK      -0.305790
     23 C16x        17.5160    50.7810    13.2150 c3         1 UNK       0.007189
     24 C17x        16.7680    50.5190    11.8490 c3         1 UNK      -0.037751
     25 C18x        15.8270    49.2590    11.6390 c3         1 UNK      -0.051825
     26 C19x        16.5430    48.1390    10.8210 c3         1 UNK      -0.053248
     27 C20x        18.0480    47.9090    11.0650 c3         1 UNK      -0.053304
     28 C21x        18.4830    47.3780    12.4860 c3         1 UNK      -0.053248
     29 C22x        18.1670    48.2850    13.7080 c3         1 UNK      -0.051825
     30 C23x        18.6200    49.7530    13.6180 c3         1 UNK      -0.037751
     31 H1x         15.1880    54.8710    12.6340 h1         1 UNK       0.060731
     32 H2x         13.0620    54.9450    13.0620 hc         1 UNK       0.029147
     33 H3x         13.3490    56.5930    13.8540 hc         1 UNK       0.029147
     34 H4x         13.0640    55.7450    15.9080 hc         1 UNK       0.028347
     35 H5x         12.4680    54.2890    14.9990 hc         1 UNK       0.028347
     36 H6x         14.9280    54.5670    16.5700 h1         1 UNK       0.046972
     37 H7x         14.3170    53.1150    15.6640 h1         1 UNK       0.046972
     38 H8x         14.9030    57.1740    11.7490 hn         1 UNK       0.149760
     39 H9x         16.9010    58.9500    13.1760 h1         1 UNK       0.051790
     40 H10x        15.6370    59.4530    12.1610 h1         1 UNK       0.051790
     41 H11x        15.5580    58.9710     9.8390 ha         1 UNK       0.062645
     42 H12x        16.9440    59.0010     7.6870 ha         1 UNK       0.063042
     43 H13x        20.3070    57.5870    10.1040 ha         1 UNK       0.063042
     44 H14x        18.9380    57.9770    12.1290 ha         1 UNK       0.062645
     45 H15x        21.3210    57.4190     6.9290 hn         1 UNK       0.189193
     46 H16x        20.0660    58.8990     5.7930 hn         1 UNK       0.144153
     47 H17x        19.3920    59.9530     6.9900 hn         1 UNK       0.144153
     48 H18x        16.3740    53.2620    12.6310 h1         1 UNK       0.052879
     49 H19x        17.8240    54.3160    12.9810 h1         1 UNK       0.052879
     50 H20x        18.8530    52.2810    13.8520 hn         1 UNK       0.122978
     51 H21x        16.8170    50.9350    14.0460 h1         1 UNK       0.046491
     52 H22x        16.0370    51.3280    11.7300 hc         1 UNK       0.028248
     53 H23x        17.5210    50.6700    11.0670 hc         1 UNK       0.028248
     54 H24x        15.6170    48.7350    12.5800 hc         1 UNK       0.026711
     55 H25x        14.9430    49.5710    11.0690 hc         1 UNK       0.026711
     56 H26x        16.4290    48.3730     9.7550 hc         1 UNK       0.026654
     57 H27x        16.0520    47.1640    10.9320 hc         1 UNK       0.026654
     58 H28x        18.6340    48.8240    10.9170 hc         1 UNK       0.026653
     59 H29x        18.2440    47.1200    10.3280 hc         1 UNK       0.026653
     60 H30x        17.9790    46.4090    12.5920 hc         1 UNK       0.026654
     61 H31x        19.5210    47.0480    12.3560 hc         1 UNK       0.026654
     62 H32x        18.6130    47.7830    14.5760 hc         1 UNK       0.026711
     63 H33x        17.1140    48.0960    13.9490 hc         1 UNK       0.026711
     64 H34x        19.5400    49.8910    13.0360 hc         1 UNK       0.028248
     65 H35x        18.8980    50.0200    14.6450 hc         1 UNK       0.028248
@<TRIPOS>BOND
     1     1     2 2   
     2     1     3 1   
     3     1    21 1   
     4     3     4 1   
     5     3     7 1   
     6     4     5 1   
     7     4     8 1   
     8     4    31 1   
     9     5     6 1   
    10     5    32 1   
    11     5    33 1   
    12     6     7 1   
    13     6    34 1   
    14     6    35 1   
    15     7    36 1   
    16     7    37 1   
    17     8     9 2   
    18     8    10 1   
    19    10    11 1   
    20    10    38 1   
    21    11    12 1   
    22    11    39 1   
    23    11    40 1   
    24    12    13 ar  
    25    12    17 ar  
    26    13    14 ar  
    27    13    41 1   
    28    14    15 ar  
    29    14    42 1   
    30    15    16 ar  
    31    15    18 1   
    32    16    17 ar  
    33    16    43 1   
    34    17    44 1   
    35    18    19 2   
    36    18    20 1   
    37    19    45 1   
    38    20    46 1   
    39    20    47 1   
    40    21    22 1   
    41    21    48 1   
    42    21    49 1   
    43    22    23 1   
    44    22    50 1   
    45    23    24 1   
    46    23    30 1   
    47    23    51 1   
    48    24    25 1   
    49    24    52 1   
    50    24    53 1   
    51    25    26 1   
    52    25    54 1   
    53    25    55 1   
    54    26    27 1   
    55    26    56 1   
    56    26    57 1   
    57    27    28 1   
    58    27    58 1   
    59    27    59 1   
    60    28    29 1   
    61    28    60 1   
    62    28    61 1   
    63    29    30 1   
    64    29    62 1   
    65    29    63 1   
    66    30    64 1   
    67    30    65 1   
@<TRIPOS>SUBSTRUCTURE
     1 UNK         1 TEMP              0 ****  ****    0 ROOT
